Version 4
SHEET 1 880 680
WIRE 80 128 -16 128
WIRE 192 128 160 128
WIRE 224 128 192 128
WIRE 336 128 304 128
WIRE 432 128 400 128
WIRE -16 144 -16 128
WIRE 192 160 192 128
WIRE 432 160 432 128
WIRE -16 256 -16 224
WIRE 192 256 192 224
WIRE 192 256 -16 256
WIRE 432 256 432 224
WIRE 432 256 192 256
SYMBOL res 176 112 R90
WINDOW 0 0 56 VBottom 2
WINDOW 3 32 56 VTop 2
SYMATTR InstName R1
SYMATTR Value 10Meg
SYMBOL res 320 112 R90
WINDOW 0 0 56 VBottom 2
WINDOW 3 32 56 VTop 2
SYMATTR InstName R2
SYMATTR Value 1k
SYMBOL cap 176 160 R0
SYMATTR InstName C1
SYMATTR Value 10µ
SYMBOL Misc\\DIAC 400 96 R90
WINDOW 0 0 32 VBottom 2
WINDOW 3 64 32 VTop 2
SYMATTR InstName U1
SYMBOL LED 416 160 R0
SYMATTR InstName D1
SYMBOL voltage -16 128 R0
WINDOW 123 0 0 Left 0
WINDOW 39 0 0 Left 0
SYMATTR InstName V1
SYMATTR Value 600
